Circuit: * C:\Users\pilla\Desktop\Git\3096S_PLLTHI032_WBBDAN003\3096-Tutorials\Tutorial_3\Sim_for_555.asc

Direct Newton iteration for .op point succeeded.

Date: Wed Sep 06 10:00:34 2023
Total elapsed time: 0.055 seconds.

tnom = 27
temp = 27
method = modified trap
totiter = 9209
traniter = 9196
tranpoints = 2700
accept = 2286
rejected = 414
matrix size = 18
fillins = 6
solver = Normal
Matrix Compiler1: 850 bytes object code size  0.2/0.1/[0.1]
Matrix Compiler2: 1.19 KB object code size  0.1/0.1/[0.1]

