Circuit: * C:\Users\pilla\Desktop\Git\3096S_PLLTHI032_WBBDAN003\3096-Tutorials\Tutorial_4\Tutorial.asc

Direct Newton iteration failed to find .op point.  (Use ".option noopiter" to skip.)
Starting Gmin stepping
Gmin = 10
Gmin = 1.07374
Gmin = 0.115292
Gmin = 0.0123794
Gmin = 0.00132923
Gmin = 0.000142725
Gmin = 1.5325e-005
Gmin = 1.6455e-006
Gmin = 1.76685e-007
Gmin = 1.89714e-008
Gmin = 2.03704e-009
Gmin = 2.18725e-010
Gmin = 2.34854e-011
Gmin = 2.52173e-012
Gmin = 2.70769e-013
Gmin = 0
Gmin stepping succeeded in finding the operating point.


Date: Fri Sep 29 20:45:04 2023
Total elapsed time: 0.118 seconds.

tnom = 27
temp = 27
method = modified trap
totiter = 4511
traniter = 4113
tranpoints = 1803
accept = 1513
rejected = 290
matrix size = 141
fillins = 164
solver = Normal
Thread vector: 8.3/4.3[3] 1.6/1.1[3] 2.6/1.7[3] 0.5/0.9[1]  2592/500
Matrix Compiler1: 16.50 KB object code size  2.6/1.4/[0.6]
Matrix Compiler2: 14.36 KB object code size  1.2/2.1/[0.6]

